# generated using pymatgen
data_HCF
_symmetry_space_group_name_H-M   'P 1'
_cell_length_a   2.53619012
_cell_length_b   7.73382409
_cell_length_c   4.22310625
_cell_angle_alpha   90.00000000
_cell_angle_beta   90.00000000
_cell_angle_gamma   90.00000000
_symmetry_Int_Tables_number   1
_chemical_formula_structural   HCF
_chemical_formula_sum   'H4 C4 F4'
_cell_volume   82.8338990501
_cell_formula_units_Z   4
loop_
 _symmetry_equiv_pos_site_id
 _symmetry_equiv_pos_as_xyz
  1  'x, y, z'
loop_
 _atom_site_type_symbol
 _atom_site_label
 _atom_site_symmetry_multiplicity
 _atom_site_fract_x
 _atom_site_fract_y
 _atom_site_fract_z
 _atom_site_occupancy
  C  C1  1  0.000000  0.000000  0.983910  1
  C  C2  1  0.000000  0.500000  0.483908  1
  C  C3  1  0.500000  0.000000  0.176380  1
  C  C4  1  0.500000  0.500000  0.676378  1
  F  F5  1  0.500000  0.855814  0.384258  1
  F  F6  1  0.500000  0.355814  0.884256  1
  F  F7  1  0.500000  0.144186  0.384258  1
  F  F8  1  0.500000  0.644186  0.884256  1
  H  H9  1  0.000000  0.886581  0.833605  1
  H  H10  1  0.000000  0.386581  0.333602  1
  H  H11  1  0.000000  0.113419  0.833605  1
  H  H12  1  0.000000  0.613419  0.333602  1
#Polymer_Name = beta-PVDF
#Chemical_Formula = H4 C4 F4
#Number_of_atoms = 12
#Number_of_atom_types = 3
#Atom_types =    C    F    H 
#Atom_numbers =      4     4     4
#Material_Class = MC_pol
#Geometry_Class = GC_cry
#Source = T. D. Huan et al. Sci. Data, 3, 160012 (2016)
#Class = common_polymer_crystal
#Label = beta-PVDF
#Polymer_Class =
#Polymer_Repeat_Unit = CH2-CF2-CH2-CF2
#Polymer_SMILES_notation = CC(F)(F)CC(F)(F)
#Structure_prediction_method_used = NA
#Dielectric_constant_electronic = 2.5992
#Dielectric_constant_ionic = 0.7866
#Dielectric_constant_total = 3.3858
#Refractive_Index = 1.6122
#GGA_bandgap = 6.4659
#HSE_bandgap = 8.4300
#Mol_weight = 2.12662E-22
#Volume = 82.8339
#Density = 2.5673
#Atomization_Energy = -5.1278
#Cohesive_Energy = 0.2484
#Ionization_Energy = 8.1531
#Electron_Affinity = 1.1415
#Simulation_tool = VASP-5.X
#Pseudopotential = PAW
#Simulation_conditions = ENCUT=400eV,k-spacing_relax=0.25/Angstrom,k-spacing_bandgap=0.20/Angstrom
#File_description = Structural information in CIF format
#Note = NA
#Created_by = Huan Tran (huan.tran@uconn.edu), Arun Mannodi-Kanakkithodi (mannodiarun@gmail.com)
